  
       XFOIL         Version 6.99
  
 Calculated polar for: NACA 0015                                       
  
 1 1 Reynolds number fixed          Mach number fixed         
  
 xtrf =   1.000 (top)        1.000 (bottom)  
 Mach =   0.000     Re =     0.000 e 6     Ncrit =   9.000
  
   alpha    CL        CD       CDp       CM     Chinge   Top_Xtr  Bot_Xtr
  ------ -------- --------- --------- -------- -------- -------- --------
   0.000   0.0007   0.00000  -0.00128  -0.0001  0.00005   0.0000   0.0000
   0.556   0.0694   0.00000  -0.00128  -0.0012  0.00080   0.0000   0.0000
   1.111   0.1381   0.00000  -0.00128  -0.0023  0.00155   0.0000   0.0000
   1.667   0.2069   0.00000  -0.00128  -0.0033  0.00230   0.0000   0.0000
   2.222   0.2755   0.00000  -0.00128  -0.0044  0.00305   0.0000   0.0000
   2.778   0.3442   0.00000  -0.00129  -0.0054  0.00380   0.0000   0.0000
   3.333   0.4129   0.00000  -0.00129  -0.0065  0.00455   0.0000   0.0000
   3.889   0.4815   0.00000  -0.00129  -0.0075  0.00530   0.0000   0.0000
   4.444   0.5500   0.00000  -0.00129  -0.0086  0.00604   0.0000   0.0000
   5.000   0.6185   0.00000  -0.00130  -0.0096  0.00678   0.0000   0.0000
   0.000   0.1486   0.00000  -0.00128  -0.0210  0.00353   0.0000   0.0000
   0.556   0.2173   0.00000  -0.00128  -0.0221  0.00428   0.0000   0.0000
   1.111   0.2860   0.00000  -0.00128  -0.0231  0.00503   0.0000   0.0000
   1.667   0.3547   0.00000  -0.00129  -0.0242  0.00578   0.0000   0.0000
   2.222   0.4233   0.00000  -0.00129  -0.0252  0.00652   0.0000   0.0000
   2.778   0.4919   0.00000  -0.00129  -0.0262  0.00727   0.0000   0.0000
   3.333   0.5605   0.00000  -0.00130  -0.0273  0.00801   0.0000   0.0000
   3.889   0.6290   0.00000  -0.00130  -0.0283  0.00875   0.0000   0.0000
   4.444   0.6974   0.00000  -0.00131  -0.0293  0.00949   0.0000   0.0000
   5.000   0.7658   0.00000  -0.00131  -0.0303  0.01022   0.0000   0.0000
   0.000   0.2971   0.00000  -0.00129  -0.0420  0.00711   0.0000   0.0000
   0.556   0.3657   0.00000  -0.00129  -0.0431  0.00785   0.0000   0.0000
   1.111   0.4343   0.00000  -0.00130  -0.0441  0.00860   0.0000   0.0000
   1.667   0.5029   0.00000  -0.00130  -0.0451  0.00934   0.0000   0.0000
   2.222   0.5714   0.00000  -0.00130  -0.0461  0.01008   0.0000   0.0000
   2.778   0.6399   0.00000  -0.00131  -0.0471  0.01081   0.0000   0.0000
   3.333   0.7082   0.00000  -0.00131  -0.0481  0.01154   0.0000   0.0000
   3.889   0.7766   0.00000  -0.00132  -0.0491  0.01227   0.0000   0.0000
   4.444   0.8448   0.00000  -0.00132  -0.0500  0.01300   0.0000   0.0000
   5.000   0.9130   0.00000  -0.00133  -0.0510  0.01372   0.0000   0.0000
   0.000   0.4447   0.00000  -0.00130  -0.0628  0.01060   0.0000   0.0000
   0.556   0.5133   0.00000  -0.00130  -0.0638  0.01134   0.0000   0.0000
   1.111   0.5818   0.00000  -0.00131  -0.0648  0.01207   0.0000   0.0000
   1.667   0.6503   0.00000  -0.00131  -0.0658  0.01281   0.0000   0.0000
   2.222   0.7187   0.00000  -0.00132  -0.0668  0.01354   0.0000   0.0000
   2.778   0.7871   0.00000  -0.00132  -0.0678  0.01427   0.0000   0.0000
   3.333   0.8553   0.00000  -0.00133  -0.0687  0.01499   0.0000   0.0000
   3.889   0.9235   0.00000  -0.00133  -0.0697  0.01571   0.0000   0.0000
   4.444   0.9916   0.00000  -0.00134  -0.0706  0.01643   0.0000   0.0000
   5.000   1.0596   0.00000  -0.00135  -0.0715  0.01714   0.0000   0.0000
   0.000   0.5926   0.00000  -0.00131  -0.0837  0.01409   0.0000   0.0000
   0.556   0.6610   0.00000  -0.00132  -0.0847  0.01482   0.0000   0.0000
   1.111   0.7294   0.00000  -0.00132  -0.0856  0.01555   0.0000   0.0000
   1.667   0.7977   0.00000  -0.00133  -0.0866  0.01627   0.0000   0.0000
   2.222   0.8659   0.00000  -0.00133  -0.0875  0.01699   0.0000   0.0000
   2.778   0.9341   0.00000  -0.00134  -0.0884  0.01771   0.0000   0.0000
   3.333   1.0022   0.00000  -0.00135  -0.0893  0.01842   0.0000   0.0000
   3.889   1.0702   0.00000  -0.00135  -0.0902  0.01912   0.0000   0.0000
   4.444   1.1380   0.00000  -0.00136  -0.0911  0.01982   0.0000   0.0000
   5.000   1.2058   0.00000  -0.00137  -0.0919  0.02052   0.0000   0.0000
   0.000   0.7395   0.00000  -0.00133  -0.1043  0.01751   0.0000   0.0000
   0.556   0.8078   0.00000  -0.00133  -0.1052  0.01823   0.0000   0.0000
   1.111   0.8760   0.00000  -0.00134  -0.1062  0.01894   0.0000   0.0000
   1.667   0.9441   0.00000  -0.00135  -0.1071  0.01965   0.0000   0.0000
   2.222   1.0121   0.00000  -0.00135  -0.1080  0.02036   0.0000   0.0000
   2.778   1.0801   0.00000  -0.00136  -0.1088  0.02106   0.0000   0.0000
   3.333   1.1479   0.00000  -0.00137  -0.1097  0.02175   0.0000   0.0000
   3.889   1.2156   0.00000  -0.00138  -0.1105  0.02244   0.0000   0.0000
   4.444   1.2832   0.00000  -0.00138  -0.1113  0.02312   0.0000   0.0000
   5.000   1.3507   0.00000  -0.00139  -0.1120  0.02380   0.0000   0.0000
   0.000   0.8867   0.00000  -0.00134  -0.1250  0.02094   0.0000   0.0000
   0.556   0.9548   0.00000  -0.00135  -0.1259  0.02165   0.0000   0.0000
   1.111   1.0228   0.00000  -0.00136  -0.1267  0.02234   0.0000   0.0000
   1.667   1.0907   0.00000  -0.00136  -0.1276  0.02304   0.0000   0.0000
   2.222   1.1584   0.00000  -0.00137  -0.1284  0.02373   0.0000   0.0000
   2.778   1.2261   0.00000  -0.00138  -0.1292  0.02441   0.0000   0.0000
   3.333   1.2937   0.00000  -0.00139  -0.1300  0.02508   0.0000   0.0000
   3.889   1.3611   0.00000  -0.00140  -0.1307  0.02575   0.0000   0.0000
   4.444   1.4284   0.00000  -0.00141  -0.1314  0.02641   0.0000   0.0000
   5.000   1.4956   0.00000  -0.00142  -0.1321  0.02707   0.0000   0.0000
   0.000   1.0337   0.00000  -0.00136  -0.1456  0.02435   0.0000   0.0000
   0.556   1.1016   0.00000  -0.00137  -0.1464  0.02504   0.0000   0.0000
   1.111   1.1694   0.00000  -0.00138  -0.1473  0.02572   0.0000   0.0000
   1.667   1.2370   0.00000  -0.00139  -0.1481  0.02640   0.0000   0.0000
   2.222   1.3045   0.00000  -0.00140  -0.1488  0.02707   0.0000   0.0000
   2.778   1.3720   0.00000  -0.00141  -0.1496  0.02773   0.0000   0.0000
   3.333   1.4392   0.00000  -0.00141  -0.1503  0.02839   0.0000   0.0000
   3.889   1.5064   0.00000  -0.00142  -0.1509  0.02904   0.0000   0.0000
   4.444   1.5734   0.00000  -0.00143  -0.1516  0.02968   0.0000   0.0000
   5.000   1.6403   0.00000  -0.00144  -0.1522  0.03032   0.0000   0.0000
   0.000   1.1792   0.00000  -0.00139  -0.1658  0.02755   0.0000   0.0000
   0.556   1.2468   0.00000  -0.00140  -0.1666  0.02822   0.0000   0.0000
   1.111   1.3143   0.00000  -0.00140  -0.1674  0.02889   0.0000   0.0000
   1.667   1.3817   0.00000  -0.00141  -0.1681  0.02955   0.0000   0.0000
   2.222   1.4489   0.00000  -0.00142  -0.1688  0.03020   0.0000   0.0000
   2.778   1.5160   0.00000  -0.00143  -0.1695  0.03085   0.0000   0.0000
   3.333   1.5829   0.00000  -0.00144  -0.1701  0.03148   0.0000   0.0000
   3.889   1.6497   0.00000  -0.00145  -0.1707  0.03211   0.0000   0.0000
   4.444   1.7164   0.00000  -0.00146  -0.1712  0.03273   0.0000   0.0000
   5.000   1.7829   0.00000  -0.00147  -0.1717  0.03334   0.0000   0.0000
   0.000   1.3239   0.00000  -0.00141  -0.1859  0.03070   0.0000   0.0000
   0.556   1.3913   0.00000  -0.00142  -0.1866  0.03136   0.0000   0.0000
   1.111   1.4584   0.00000  -0.00143  -0.1873  0.03201   0.0000   0.0000
   1.667   1.5255   0.00000  -0.00144  -0.1880  0.03264   0.0000   0.0000
   2.222   1.5924   0.00000  -0.00145  -0.1886  0.03328   0.0000   0.0000
   2.778   1.6591   0.00000  -0.00146  -0.1892  0.03390   0.0000   0.0000
   3.333   1.7257   0.00000  -0.00147  -0.1897  0.03451   0.0000   0.0000
   3.889   1.7921   0.00000  -0.00148  -0.1902  0.03512   0.0000   0.0000
   4.444   1.8584   0.00000  -0.00150  -0.1906  0.03572   0.0000   0.0000
   5.000   1.9245   0.00000  -0.00151  -0.1911  0.03630   0.0000   0.0000
   0.000   0.0007   0.00000  -0.00128  -0.0001  0.00005   0.0000   0.0000
   0.556   0.0694   0.00000  -0.00128  -0.0012  0.00080   0.0000   0.0000
   1.111   0.1381   0.00000  -0.00128  -0.0023  0.00155   0.0000   0.0000
   1.667   0.2069   0.00000  -0.00128  -0.0033  0.00230   0.0000   0.0000
   2.222   0.2755   0.00000  -0.00128  -0.0044  0.00305   0.0000   0.0000
   2.778   0.3442   0.00000  -0.00129  -0.0054  0.00380   0.0000   0.0000
   3.333   0.4129   0.00000  -0.00129  -0.0065  0.00455   0.0000   0.0000
   3.889   0.4815   0.00000  -0.00129  -0.0075  0.00530   0.0000   0.0000
   4.444   0.5500   0.00000  -0.00129  -0.0086  0.00604   0.0000   0.0000
   5.000   0.6185   0.00000  -0.00130  -0.0096  0.00678   0.0000   0.0000
   0.000   0.1486   0.00000  -0.00128  -0.0210  0.00353   0.0000   0.0000
   0.556   0.2173   0.00000  -0.00128  -0.0221  0.00428   0.0000   0.0000
   1.111   0.2860   0.00000  -0.00128  -0.0231  0.00503   0.0000   0.0000
   1.667   0.3547   0.00000  -0.00129  -0.0242  0.00578   0.0000   0.0000
   2.222   0.4233   0.00000  -0.00129  -0.0252  0.00652   0.0000   0.0000
   2.778   0.4919   0.00000  -0.00129  -0.0262  0.00727   0.0000   0.0000
   3.333   0.5605   0.00000  -0.00130  -0.0273  0.00801   0.0000   0.0000
   3.889   0.6290   0.00000  -0.00130  -0.0283  0.00875   0.0000   0.0000
   4.444   0.6974   0.00000  -0.00131  -0.0293  0.00949   0.0000   0.0000
   5.000   0.7658   0.00000  -0.00131  -0.0303  0.01022   0.0000   0.0000
   0.000   0.2971   0.00000  -0.00129  -0.0420  0.00711   0.0000   0.0000
   0.556   0.3657   0.00000  -0.00129  -0.0431  0.00785   0.0000   0.0000
   1.111   0.4343   0.00000  -0.00130  -0.0441  0.00860   0.0000   0.0000
   1.667   0.5029   0.00000  -0.00130  -0.0451  0.00934   0.0000   0.0000
   2.222   0.5714   0.00000  -0.00130  -0.0461  0.01008   0.0000   0.0000
   2.778   0.6399   0.00000  -0.00131  -0.0471  0.01081   0.0000   0.0000
   3.333   0.7082   0.00000  -0.00131  -0.0481  0.01154   0.0000   0.0000
   3.889   0.7766   0.00000  -0.00132  -0.0491  0.01227   0.0000   0.0000
   4.444   0.8448   0.00000  -0.00132  -0.0500  0.01300   0.0000   0.0000
   5.000   0.9130   0.00000  -0.00133  -0.0510  0.01372   0.0000   0.0000
   0.000   0.4447   0.00000  -0.00130  -0.0628  0.01060   0.0000   0.0000
   0.556   0.5133   0.00000  -0.00130  -0.0638  0.01134   0.0000   0.0000
   1.111   0.5818   0.00000  -0.00131  -0.0648  0.01207   0.0000   0.0000
   1.667   0.6503   0.00000  -0.00131  -0.0658  0.01281   0.0000   0.0000
   2.222   0.7187   0.00000  -0.00132  -0.0668  0.01354   0.0000   0.0000
   2.778   0.7871   0.00000  -0.00132  -0.0678  0.01427   0.0000   0.0000
   3.333   0.8553   0.00000  -0.00133  -0.0687  0.01499   0.0000   0.0000
   3.889   0.9235   0.00000  -0.00133  -0.0697  0.01571   0.0000   0.0000
   4.444   0.9916   0.00000  -0.00134  -0.0706  0.01643   0.0000   0.0000
   5.000   1.0596   0.00000  -0.00135  -0.0715  0.01714   0.0000   0.0000
   0.000   0.5926   0.00000  -0.00131  -0.0837  0.01409   0.0000   0.0000
   0.556   0.6610   0.00000  -0.00132  -0.0847  0.01482   0.0000   0.0000
   1.111   0.7294   0.00000  -0.00132  -0.0856  0.01555   0.0000   0.0000
   1.667   0.7977   0.00000  -0.00133  -0.0866  0.01627   0.0000   0.0000
   2.222   0.8659   0.00000  -0.00133  -0.0875  0.01699   0.0000   0.0000
   2.778   0.9341   0.00000  -0.00134  -0.0884  0.01771   0.0000   0.0000
   3.333   1.0022   0.00000  -0.00135  -0.0893  0.01842   0.0000   0.0000
   3.889   1.0702   0.00000  -0.00135  -0.0902  0.01912   0.0000   0.0000
   4.444   1.1380   0.00000  -0.00136  -0.0911  0.01982   0.0000   0.0000
   5.000   1.2058   0.00000  -0.00137  -0.0919  0.02052   0.0000   0.0000
   0.000   0.7395   0.00000  -0.00133  -0.1043  0.01751   0.0000   0.0000
   0.556   0.8078   0.00000  -0.00133  -0.1052  0.01823   0.0000   0.0000
   1.111   0.8760   0.00000  -0.00134  -0.1062  0.01894   0.0000   0.0000
   1.667   0.9441   0.00000  -0.00135  -0.1071  0.01965   0.0000   0.0000
   2.222   1.0121   0.00000  -0.00135  -0.1080  0.02036   0.0000   0.0000
   2.778   1.0801   0.00000  -0.00136  -0.1088  0.02106   0.0000   0.0000
   3.333   1.1479   0.00000  -0.00137  -0.1097  0.02175   0.0000   0.0000
   3.889   1.2156   0.00000  -0.00138  -0.1105  0.02244   0.0000   0.0000
   4.444   1.2832   0.00000  -0.00138  -0.1113  0.02312   0.0000   0.0000
   5.000   1.3507   0.00000  -0.00139  -0.1120  0.02380   0.0000   0.0000
   0.000   0.8867   0.00000  -0.00134  -0.1250  0.02094   0.0000   0.0000
   0.556   0.9548   0.00000  -0.00135  -0.1259  0.02165   0.0000   0.0000
   1.111   1.0228   0.00000  -0.00136  -0.1267  0.02234   0.0000   0.0000
   1.667   1.0907   0.00000  -0.00136  -0.1276  0.02304   0.0000   0.0000
   2.222   1.1584   0.00000  -0.00137  -0.1284  0.02373   0.0000   0.0000
   2.778   1.2261   0.00000  -0.00138  -0.1292  0.02441   0.0000   0.0000
   3.333   1.2937   0.00000  -0.00139  -0.1300  0.02508   0.0000   0.0000
   3.889   1.3611   0.00000  -0.00140  -0.1307  0.02575   0.0000   0.0000
   4.444   1.4284   0.00000  -0.00141  -0.1314  0.02641   0.0000   0.0000
   5.000   1.4956   0.00000  -0.00142  -0.1321  0.02707   0.0000   0.0000
   0.000   1.0337   0.00000  -0.00136  -0.1456  0.02435   0.0000   0.0000
   0.556   1.1016   0.00000  -0.00137  -0.1464  0.02504   0.0000   0.0000
   1.111   1.1694   0.00000  -0.00138  -0.1473  0.02572   0.0000   0.0000
   1.667   1.2370   0.00000  -0.00139  -0.1481  0.02640   0.0000   0.0000
   2.222   1.3045   0.00000  -0.00140  -0.1488  0.02707   0.0000   0.0000
   2.778   1.3720   0.00000  -0.00141  -0.1496  0.02773   0.0000   0.0000
   3.333   1.4392   0.00000  -0.00141  -0.1503  0.02839   0.0000   0.0000
   3.889   1.5064   0.00000  -0.00142  -0.1509  0.02904   0.0000   0.0000
   4.444   1.5734   0.00000  -0.00143  -0.1516  0.02968   0.0000   0.0000
   5.000   1.6403   0.00000  -0.00144  -0.1522  0.03032   0.0000   0.0000
   0.000   1.1792   0.00000  -0.00139  -0.1658  0.02755   0.0000   0.0000
   0.556   1.2468   0.00000  -0.00140  -0.1666  0.02822   0.0000   0.0000
   1.111   1.3143   0.00000  -0.00140  -0.1674  0.02889   0.0000   0.0000
   1.667   1.3817   0.00000  -0.00141  -0.1681  0.02955   0.0000   0.0000
   2.222   1.4489   0.00000  -0.00142  -0.1688  0.03020   0.0000   0.0000
   2.778   1.5160   0.00000  -0.00143  -0.1695  0.03085   0.0000   0.0000
   3.333   1.5829   0.00000  -0.00144  -0.1701  0.03148   0.0000   0.0000
   3.889   1.6497   0.00000  -0.00145  -0.1707  0.03211   0.0000   0.0000
   4.444   1.7164   0.00000  -0.00146  -0.1712  0.03273   0.0000   0.0000
   5.000   1.7829   0.00000  -0.00147  -0.1717  0.03334   0.0000   0.0000
   0.000   1.3239   0.00000  -0.00141  -0.1859  0.03070   0.0000   0.0000
   0.556   1.3913   0.00000  -0.00142  -0.1866  0.03136   0.0000   0.0000
   1.111   1.4584   0.00000  -0.00143  -0.1873  0.03201   0.0000   0.0000
   1.667   1.5255   0.00000  -0.00144  -0.1880  0.03264   0.0000   0.0000
   2.222   1.5924   0.00000  -0.00145  -0.1886  0.03328   0.0000   0.0000
   2.778   1.6591   0.00000  -0.00146  -0.1892  0.03390   0.0000   0.0000
   3.333   1.7257   0.00000  -0.00147  -0.1897  0.03451   0.0000   0.0000
   3.889   1.7921   0.00000  -0.00148  -0.1902  0.03512   0.0000   0.0000
   4.444   1.8584   0.00000  -0.00150  -0.1906  0.03572   0.0000   0.0000
   5.000   1.9245   0.00000  -0.00151  -0.1911  0.03630   0.0000   0.0000
